*diode Y
.MODEL Y D( IS=76.9p RS=42.0m BV=1000 IBV=5.00u
+ CJO=26.5p  M=0.333 N=1.45 TT=4.32u )
