* 2N3904C
.MODEL 2n3904c npn
+IS=3.5e-15	BF=160 		VAF=400
+IKF=0.15	ISE=4e-16	NE=1.26		NF=1
+RB=30.1 	RC=1		RE=0.1
+CJE=15e-12 	MJE=0.25	VJE=0.75
+CJC=3.6e-12	MJC=0.30	VJC=0.75	FC=0.5
+TF=380e-12 	XTF=30 		VTF=4		ITF=0.4
+TR=240e-9	BR=0.7		IKR=0
+EG=1.1 	XTB=1.5		XTI=3		NC=2
+ISC=0		mfg=CA022411
*
