* NMOS4007 NMOS transistor SPICE models

* Typical - Typical Condition

.model NMOS4007 NMOS 
+ Level=1    Gamma= 0   Xj=0
+ Tox=1200n  Phi=.6     Rs=0      Kp=111u  Vto=2.0    Lambda=0.01
+ Rd=0       Cbd=2.0p   Cbs=2.0p  Pb=.8    Cgso=0.1p
+ Cgdo=0.1p  Is=16.64p  N=1

*The default W and L is 30 and 10 um respectively and AD and AS
*should not be included.

